
#######################################################################
#
#                 Cambridge Crystallographic Data Centre
#                                CCDC 
#
#######################################################################
#
# If this CIF has been generated from an entry in the Cambridge 
# Structural Database, then it will include bibliographic, chemical, 
# crystal, experimental, refinement or atomic coordinate data resulting 
# from the CCDC's data processing and validation procedures.
#
#######################################################################

data_HXACAN
_symmetry_cell_setting           triclinic
_symmetry_space_group_name_H-M   'P 1'
_symmetry_Int_Tables_number      1
_space_group_name_Hall           'P 1'
loop_
_symmetry_equiv_pos_site_id
_symmetry_equiv_pos_as_xyz
1 x,y,z
_cell_length_a                   11.805
_cell_length_b                   17.164
_cell_length_c                   7.393
_cell_angle_alpha                90
_cell_angle_beta                 90
_cell_angle_gamma                90
_cell_volume                     1497.98
loop_
_atom_site_label
_atom_site_type_symbol
_atom_site_fract_x
_atom_site_fract_y
_atom_site_fract_z
C1 C 0.446168 0.338671 0.290951
C2 C 0.339094 0.337273 0.212228
C3 C 0.279119 0.268001 0.207358
C4 C 0.3241 0.200826 0.280671
C5 C 0.428124 0.202573 0.365481
C6 C 0.48937 0.271788 0.369944
C7 C 0.493012 0.480478 0.261463
C8 C 0.593309 0.535011 0.269444
H1 H 0.309022 0.383998 0.162992
H2 H 0.207031 0.26602 0.154065
H3 H 0.453961 0.154974 0.419992
H4 H 0.559001 0.270972 0.432977
H5 H 0.305973 0.0950237 0.279048
H6 H 0.582042 0.39501 0.313945
H7 H 0.64998 0.517999 0.346003
H8 H 0.57103 0.583018 0.289057
H9 H 0.628972 0.53402 0.152036
N1 N 0.518086 0.405322 0.291221
O1 O 0.263025 0.132427 0.268768
O2 O 0.396866 0.502967 0.228865
C1 C 0.0537908 0.338671 0.791018
C2 C 0.160864 0.337273 0.71216
C3 C 0.220924 0.268001 0.70729
C4 C 0.175858 0.200826 0.780738
C5 C 0.0719188 0.202573 0.865548
C6 C 0.0105887 0.271788 0.870012
C7 C 0.00703093 0.480478 0.761531
C8 C -0.0932657 0.535011 0.769376
H1 H 0.191021 0.383998 0.663059
H2 H 0.293012 0.26602 0.653997
H3 H 0.0459975 0.154974 0.920059
H4 H -0.0589582 0.270972 0.933044
H5 H 0.193986 0.0950237 0.77898
H6 H -0.0819993 0.39501 0.814013
H7 H -0.150021 0.517999 0.845935
H8 H -0.070987 0.583018 0.788989
H9 H -0.129013 0.53402 0.651968
N1 N -0.0181279 0.405322 0.791153
O1 O 0.237019 0.132427 0.768835
O2 O 0.103092 0.502967 0.728797
C1 C 0.946211 0.161325 0.290951
C2 C 0.839137 0.162723 0.212228
C3 C 0.779078 0.231995 0.207358
C4 C 0.824144 0.29917 0.280671
C5 C 0.928083 0.297422 0.365481
C6 C 0.989413 0.228208 0.369944
C7 C 0.992971 0.0195174 0.261463
C8 C 1.09327 -0.0350149 0.269444
H1 H 0.80898 0.115998 0.162992
H2 H 0.70699 0.233976 0.154065
H3 H 0.954004 0.345022 0.419992
H4 H 1.05896 0.229024 0.432977
H5 H 0.806016 0.404972 0.279048
H6 H 1.082 0.104986 0.313945
H7 H 1.15002 -0.0180026 0.346003
H8 H 1.07099 -0.0830219 0.289057
H9 H 1.12901 -0.0340244 0.152036
N1 N 1.01813 0.0946741 0.291221
O1 O 0.762983 0.367569 0.268768
O2 O 0.896909 -0.00297131 0.228865
C1 C 0.553834 0.161325 0.791018
C2 C 0.660907 0.162723 0.71216
C3 C 0.720882 0.231995 0.70729
C4 C 0.675901 0.29917 0.780738
C5 C 0.571877 0.297422 0.865548
C6 C 0.510632 0.228208 0.870012
C7 C 0.506989 0.0195174 0.761531
C8 C 0.406693 -0.0350149 0.769376
H1 H 0.690979 0.115998 0.663059
H2 H 0.79297 0.233976 0.653997
H3 H 0.546041 0.345022 0.920059
H4 H 0.441 0.229024 0.933044
H5 H 0.694029 0.404972 0.77898
H6 H 0.417959 0.104986 0.814013
H7 H 0.350022 -0.0180026 0.845935
H8 H 0.428971 -0.0830219 0.788989
H9 H 0.37103 -0.0340244 0.651968
N1 N 0.481915 0.0946741 0.791153
O1 O 0.736977 0.367569 0.768835
O2 O 0.603135 -0.00297131 0.728797
C1 C 0.553834 0.661321 0.709049
C2 C 0.660907 0.662719 0.787772
C3 C 0.720882 0.731991 0.792641
C4 C 0.675901 0.799166 0.719329
C5 C 0.571877 0.797418 0.634519
C6 C 0.510632 0.728204 0.630055
C7 C 0.506989 0.519513 0.738536
C8 C 0.406693 0.464981 0.730555
H1 H 0.690979 0.615994 0.837007
H2 H 0.79297 0.733972 0.845935
H3 H 0.546041 0.845018 0.580008
H4 H 0.441 0.72902 0.567022
H5 H 0.694029 0.904968 0.720952
H6 H 0.417959 0.604982 0.686054
H7 H 0.350022 0.481993 0.653997
H8 H 0.428971 0.416974 0.710942
H9 H 0.37103 0.465971 0.847964
N1 N 0.481915 0.59467 0.708778
O1 O 0.736977 0.867565 0.731232
O2 O 0.603135 0.497025 0.771134
C1 C 0.946211 0.661321 0.208981
C2 C 0.839137 0.662719 0.28784
C3 C 0.779078 0.731991 0.292709
C4 C 0.824144 0.799166 0.219261
C5 C 0.928083 0.797418 0.134451
C6 C 0.989413 0.728204 0.129988
C7 C 0.992971 0.519513 0.238469
C8 C 1.09327 0.464981 0.230623
H1 H 0.80898 0.615994 0.33694
H2 H 0.70699 0.733972 0.346003
H3 H 0.954004 0.845018 0.0799404
H4 H 1.05896 0.72902 0.0669552
H5 H 0.806016 0.904968 0.22102
H6 H 1.082 0.604982 0.185987
H7 H 1.15002 0.481993 0.154065
H8 H 1.07099 0.416974 0.21101
H9 H 1.12901 0.465971 0.348032
N1 N 1.01813 0.59467 0.208846
O1 O 0.762983 0.867565 0.231164
O2 O 0.896909 0.497025 0.271202
C1 C 0.0537908 0.838667 0.709049
C2 C 0.160864 0.837269 0.787772
C3 C 0.220924 0.767997 0.792641
C4 C 0.175858 0.700822 0.719329
C5 C 0.0719188 0.702569 0.634519
C6 C 0.0105887 0.771783 0.630055
C7 C 0.00703093 0.980474 0.738536
C8 C -0.0932657 1.03501 0.730555
H1 H 0.191021 0.883994 0.837007
H2 H 0.293012 0.766016 0.845935
H3 H 0.0459975 0.65497 0.580008
H4 H -0.0589582 0.770968 0.567022
H5 H 0.193986 0.59502 0.720952
H6 H -0.0819993 0.895005 0.686054
H7 H -0.150021 1.01799 0.653997
H8 H -0.070987 1.08301 0.710942
H9 H -0.129013 1.03402 0.847964
N1 N -0.0181279 0.905318 0.708778
O1 O 0.237019 0.632423 0.731232
O2 O 0.103092 1.00296 0.771134
C1 C 0.446168 0.838667 0.208981
C2 C 0.339094 0.837269 0.28784
C3 C 0.279119 0.767997 0.292709
C4 C 0.3241 0.700822 0.219261
C5 C 0.428124 0.702569 0.134451
C6 C 0.48937 0.771783 0.129988
C7 C 0.493012 0.980474 0.238469
C8 C 0.593309 1.03501 0.230623
H1 H 0.309022 0.883994 0.33694
H2 H 0.207031 0.766016 0.346003
H3 H 0.453961 0.65497 0.0799404
H4 H 0.559001 0.770968 0.0669552
H5 H 0.305973 0.59502 0.22102
H6 H 0.582042 0.895005 0.185987
H7 H 0.64998 1.01799 0.154065
H8 H 0.57103 1.08301 0.21101
H9 H 0.628972 1.03402 0.348032
N1 N 0.518086 0.905318 0.208846
O1 O 0.263025 0.632423 0.231164
O2 O 0.396866 1.00296 0.271202

#END
